Circuit: * D:\Osho\VIT\Winter semester 15-16\CSE-Digital-CSE1003\Project\Draft1.asc

Fatal Error: Multiple instances of "Push"
